*SPEF "ieee 1481-1999"
*DESIGN "tiny_user_project"
*DATE "11:11:11 Fri 11 11, 1111"
*VENDOR "OpenRCX"
*PROGRAM "Parallel Extraction"
*VERSION "1.0"
*DESIGN_FLOW "NAME_SCOPE LOCAL" "PIN_CAP NONE"
*DIVIDER /
*DELIMITER :
*BUS_DELIMITER []
*T_UNIT 1 NS
*C_UNIT 1 PF
*R_UNIT 1 OHM
*L_UNIT 1 HENRY

*NAME_MAP
*1 io_in[0]
*2 io_in[10]
*3 io_in[11]
*4 io_in[12]
*5 io_in[13]
*6 io_in[14]
*7 io_in[15]
*8 io_in[16]
*9 io_in[17]
*10 io_in[18]
*11 io_in[19]
*12 io_in[1]
*13 io_in[20]
*14 io_in[21]
*15 io_in[22]
*16 io_in[23]
*17 io_in[24]
*18 io_in[25]
*19 io_in[26]
*20 io_in[27]
*21 io_in[28]
*22 io_in[29]
*23 io_in[2]
*24 io_in[30]
*25 io_in[31]
*26 io_in[32]
*27 io_in[33]
*28 io_in[34]
*29 io_in[35]
*30 io_in[36]
*31 io_in[37]
*32 io_in[3]
*33 io_in[4]
*34 io_in[5]
*35 io_in[6]
*36 io_in[7]
*37 io_in[8]
*38 io_in[9]
*39 net111
*40 net121
*41 net122
*42 net123
*43 net124
*44 net125
*45 net126
*46 net127
*47 net128
*48 net129
*49 net130
*50 net112
*51 net131
*52 net132
*53 net133
*54 net134
*55 net135
*56 net136
*57 net137
*58 net138
*59 net139
*60 net140
*61 net113
*62 net141
*63 net142
*64 net143
*65 net144
*66 net145
*67 net146
*68 net147
*69 net148
*70 net114
*71 net115
*72 net116
*73 net117
*74 net118
*75 net119
*76 net120
*77 net81
*78 net91
*79 net92
*80 net93
*81 net94
*82 net95
*83 net96
*84 io_out[16]
*85 io_out[17]
*86 io_out[18]
*87 io_out[19]
*88 net82
*89 io_out[20]
*90 io_out[21]
*91 io_out[22]
*92 io_out[23]
*93 net97
*94 net98
*95 net99
*96 net100
*97 net101
*98 net102
*99 net83
*100 net103
*101 net104
*102 net105
*103 net106
*104 net107
*105 net108
*106 net109
*107 net110
*108 net84
*109 net85
*110 net86
*111 net87
*112 net88
*113 net89
*114 net90
*115 la_data_in[0]
*116 la_data_in[10]
*117 la_data_in[11]
*118 la_data_in[12]
*119 la_data_in[13]
*120 la_data_in[14]
*121 la_data_in[15]
*122 la_data_in[16]
*123 la_data_in[17]
*124 la_data_in[18]
*125 la_data_in[19]
*126 la_data_in[1]
*127 la_data_in[20]
*128 la_data_in[21]
*129 la_data_in[22]
*130 la_data_in[23]
*131 la_data_in[24]
*132 la_data_in[25]
*133 la_data_in[26]
*134 la_data_in[27]
*135 la_data_in[28]
*136 la_data_in[29]
*137 la_data_in[2]
*138 la_data_in[30]
*139 la_data_in[31]
*140 la_data_in[32]
*141 la_data_in[33]
*142 la_data_in[34]
*143 la_data_in[35]
*144 la_data_in[36]
*145 la_data_in[37]
*146 la_data_in[38]
*147 la_data_in[39]
*148 la_data_in[3]
*149 la_data_in[40]
*150 la_data_in[41]
*151 la_data_in[42]
*152 la_data_in[43]
*153 la_data_in[44]
*154 la_data_in[45]
*155 la_data_in[46]
*156 la_data_in[47]
*157 la_data_in[48]
*158 la_data_in[49]
*159 la_data_in[4]
*160 la_data_in[50]
*161 la_data_in[51]
*162 la_data_in[52]
*163 la_data_in[53]
*164 la_data_in[54]
*165 la_data_in[55]
*166 la_data_in[56]
*167 la_data_in[57]
*168 la_data_in[58]
*169 la_data_in[59]
*170 la_data_in[5]
*171 la_data_in[60]
*172 la_data_in[61]
*173 la_data_in[62]
*174 la_data_in[63]
*175 la_data_in[6]
*176 la_data_in[7]
*177 la_data_in[8]
*178 la_data_in[9]
*179 net17
*180 net27
*181 net28
*182 net29
*183 net30
*184 net31
*185 net32
*186 net33
*187 net34
*188 net35
*189 net36
*190 net18
*191 net37
*192 net38
*193 net39
*194 net40
*195 net41
*196 net42
*197 net43
*198 net44
*199 net45
*200 net46
*201 net19
*202 net47
*203 net48
*204 net49
*205 net50
*206 net51
*207 net52
*208 net53
*209 net54
*210 net55
*211 net56
*212 net20
*213 net57
*214 net58
*215 net59
*216 net60
*217 net61
*218 net62
*219 net63
*220 net64
*221 net65
*222 net66
*223 net21
*224 net67
*225 net68
*226 net69
*227 net70
*228 net71
*229 net72
*230 net73
*231 net74
*232 net75
*233 net76
*234 net22
*235 net77
*236 net78
*237 net79
*238 net80
*239 net23
*240 net24
*241 net25
*242 net26
*243 la_oenb[0]
*244 la_oenb[10]
*245 la_oenb[11]
*246 la_oenb[12]
*247 la_oenb[13]
*248 la_oenb[14]
*249 la_oenb[15]
*250 la_oenb[16]
*251 la_oenb[17]
*252 la_oenb[18]
*253 la_oenb[19]
*254 la_oenb[1]
*255 la_oenb[20]
*256 la_oenb[21]
*257 la_oenb[22]
*258 la_oenb[23]
*259 la_oenb[24]
*260 la_oenb[25]
*261 la_oenb[26]
*262 la_oenb[27]
*263 la_oenb[28]
*264 la_oenb[29]
*265 la_oenb[2]
*266 la_oenb[30]
*267 la_oenb[31]
*268 la_oenb[32]
*269 la_oenb[33]
*270 la_oenb[34]
*271 la_oenb[35]
*272 la_oenb[36]
*273 la_oenb[37]
*274 la_oenb[38]
*275 la_oenb[39]
*276 la_oenb[3]
*277 la_oenb[40]
*278 la_oenb[41]
*279 la_oenb[42]
*280 la_oenb[43]
*281 la_oenb[44]
*282 la_oenb[45]
*283 la_oenb[46]
*284 la_oenb[47]
*285 la_oenb[48]
*286 la_oenb[49]
*287 la_oenb[4]
*288 la_oenb[50]
*289 la_oenb[51]
*290 la_oenb[52]
*291 la_oenb[53]
*292 la_oenb[54]
*293 la_oenb[55]
*294 la_oenb[56]
*295 la_oenb[57]
*296 la_oenb[58]
*297 la_oenb[59]
*298 la_oenb[5]
*299 la_oenb[60]
*300 la_oenb[61]
*301 la_oenb[62]
*302 la_oenb[63]
*303 la_oenb[6]
*304 la_oenb[7]
*305 la_oenb[8]
*306 la_oenb[9]
*307 user_clock2
*308 net149
*309 net150
*310 net151
*313 wb_clk_i
*314 wb_rst_i
*315 net152
*316 wbs_adr_i[0]
*317 wbs_adr_i[10]
*318 wbs_adr_i[11]
*319 wbs_adr_i[12]
*320 wbs_adr_i[13]
*321 wbs_adr_i[14]
*322 wbs_adr_i[15]
*323 wbs_adr_i[16]
*324 wbs_adr_i[17]
*325 wbs_adr_i[18]
*326 wbs_adr_i[19]
*327 wbs_adr_i[1]
*328 wbs_adr_i[20]
*329 wbs_adr_i[21]
*330 wbs_adr_i[22]
*331 wbs_adr_i[23]
*332 wbs_adr_i[24]
*333 wbs_adr_i[25]
*334 wbs_adr_i[26]
*335 wbs_adr_i[27]
*336 wbs_adr_i[28]
*337 wbs_adr_i[29]
*338 wbs_adr_i[2]
*339 wbs_adr_i[30]
*340 wbs_adr_i[31]
*341 wbs_adr_i[3]
*342 wbs_adr_i[4]
*343 wbs_adr_i[5]
*344 wbs_adr_i[6]
*345 wbs_adr_i[7]
*346 wbs_adr_i[8]
*347 wbs_adr_i[9]
*348 wbs_cyc_i
*349 wbs_dat_i[0]
*350 wbs_dat_i[10]
*351 wbs_dat_i[11]
*352 wbs_dat_i[12]
*353 wbs_dat_i[13]
*354 wbs_dat_i[14]
*355 wbs_dat_i[15]
*356 wbs_dat_i[16]
*357 wbs_dat_i[17]
*358 wbs_dat_i[18]
*359 wbs_dat_i[19]
*360 wbs_dat_i[1]
*361 wbs_dat_i[20]
*362 wbs_dat_i[21]
*363 wbs_dat_i[22]
*364 wbs_dat_i[23]
*365 wbs_dat_i[24]
*366 wbs_dat_i[25]
*367 wbs_dat_i[26]
*368 wbs_dat_i[27]
*369 wbs_dat_i[28]
*370 wbs_dat_i[29]
*371 wbs_dat_i[2]
*372 wbs_dat_i[30]
*373 wbs_dat_i[31]
*374 wbs_dat_i[3]
*375 wbs_dat_i[4]
*376 wbs_dat_i[5]
*377 wbs_dat_i[6]
*378 wbs_dat_i[7]
*379 wbs_dat_i[8]
*380 wbs_dat_i[9]
*381 net153
*382 net163
*383 net164
*384 net165
*385 net166
*386 net167
*387 net168
*388 net169
*389 net170
*390 net171
*391 net172
*392 net154
*393 net173
*394 net174
*395 net175
*396 net176
*397 net177
*398 net178
*399 net179
*400 net180
*401 net181
*402 net182
*403 net155
*404 net183
*405 net184
*406 net156
*407 net157
*408 net158
*409 net159
*410 net160
*411 net161
*412 net162
*413 wbs_sel_i[0]
*414 wbs_sel_i[1]
*415 wbs_sel_i[2]
*416 wbs_sel_i[3]
*417 wbs_stb_i
*418 wbs_we_i
*419 net1
*420 net10
*421 net11
*422 net12
*423 net13
*424 net14
*425 net15
*426 net16
*427 net2
*428 net3
*429 net4
*430 net5
*431 net6
*432 net7
*433 net8
*434 net9
*435 ANTENNA__000__I
*436 ANTENNA__002__I
*437 ANTENNA__003__I
*438 ANTENNA__004__I
*439 ANTENNA__005__I
*440 ANTENNA__006__I
*441 ANTENNA__007__I
*442 ANTENNA_input1_I
*443 ANTENNA_input2_I
*444 ANTENNA_input3_I
*445 ANTENNA_input4_I
*446 ANTENNA_input5_I
*447 ANTENNA_input6_I
*448 ANTENNA_input7_I
*449 ANTENNA_input8_I
*450 ANTENNA_output10_I
*451 ANTENNA_output11_I
*452 ANTENNA_output12_I
*453 ANTENNA_output13_I
*454 ANTENNA_output14_I
*455 ANTENNA_output15_I
*456 ANTENNA_output16_I
*457 ANTENNA_output9_I
*458 FILLER_0_1001
*459 FILLER_0_1009
*460 FILLER_0_1013
*461 FILLER_0_1017
*462 FILLER_0_1022
*463 FILLER_0_1030
*464 FILLER_0_1032
*465 FILLER_0_1037
*466 FILLER_0_1045
*467 FILLER_0_1049
*468 FILLER_0_1052
*469 FILLER_0_107
*470 FILLER_0_1084
*471 FILLER_0_1087
*472 FILLER_0_1092
*473 FILLER_0_1108
*474 FILLER_0_1110
*475 FILLER_0_1115
*476 FILLER_0_1119
*477 FILLER_0_112
*478 FILLER_0_1122
*479 FILLER_0_1126
*480 FILLER_0_1128
*481 FILLER_0_1133
*482 FILLER_0_114
*483 FILLER_0_1141
*484 FILLER_0_1145
*485 FILLER_0_1151
*486 FILLER_0_1157
*487 FILLER_0_1189
*488 FILLER_0_119
*489 FILLER_0_1192
*490 FILLER_0_1224
*491 FILLER_0_1227
*492 FILLER_0_1232
*493 FILLER_0_1248
*494 FILLER_0_1256
*495 FILLER_0_1262
*496 FILLER_0_1294
*497 FILLER_0_1297
*498 FILLER_0_1329
*499 FILLER_0_1332
*500 FILLER_0_1337
*501 FILLER_0_135
*502 FILLER_0_1353
*503 FILLER_0_1361
*504 FILLER_0_1367
*505 FILLER_0_139
*506 FILLER_0_1399
*507 FILLER_0_1402
*508 FILLER_0_1404
*509 FILLER_0_1409
*510 FILLER_0_142
*511 FILLER_0_1425
*512 FILLER_0_1433
*513 FILLER_0_1437
*514 FILLER_0_1445
*515 FILLER_0_1457
*516 FILLER_0_1465
*517 FILLER_0_1469
*518 FILLER_0_1472
*519 FILLER_0_1477
*520 FILLER_0_1493
*521 FILLER_0_15
*522 FILLER_0_150
*523 FILLER_0_1501
*524 FILLER_0_1507
*525 FILLER_0_1515
*526 FILLER_0_1523
*527 FILLER_0_1539
*528 FILLER_0_1542
*529 FILLER_0_1547
*530 FILLER_0_155
*531 FILLER_0_1555
*532 FILLER_0_1558
*533 FILLER_0_1574
*534 FILLER_0_1577
*535 FILLER_0_1589
*536 FILLER_0_1605
*537 FILLER_0_1609
*538 FILLER_0_1612
*539 FILLER_0_1628
*540 FILLER_0_1632
*541 FILLER_0_1637
*542 FILLER_0_1647
*543 FILLER_0_1679
*544 FILLER_0_1682
*545 FILLER_0_171
*546 FILLER_0_1714
*547 FILLER_0_1717
*548 FILLER_0_1722
*549 FILLER_0_1730
*550 FILLER_0_1734
*551 FILLER_0_1739
*552 FILLER_0_174
*553 FILLER_0_1747
*554 FILLER_0_1749
*555 FILLER_0_1752
*556 FILLER_0_1760
*557 FILLER_0_1764
*558 FILLER_0_1769
*559 FILLER_0_177
*560 FILLER_0_1787
*561 FILLER_0_1795
*562 FILLER_0_1799
*563 FILLER_0_1805
*564 FILLER_0_1817
*565 FILLER_0_1819
*566 FILLER_0_1822
*567 FILLER_0_1838
*568 FILLER_0_1846
*569 FILLER_0_1850
*570 FILLER_0_1854
*571 FILLER_0_1857
*572 FILLER_0_1872
*573 FILLER_0_1876
*574 FILLER_0_1878
*575 FILLER_0_1883
*576 FILLER_0_1887
*577 FILLER_0_1889
*578 FILLER_0_1892
*579 FILLER_0_1908
*580 FILLER_0_1912
*581 FILLER_0_1914
*582 FILLER_0_1919
*583 FILLER_0_1923
*584 FILLER_0_1927
*585 FILLER_0_1932
*586 FILLER_0_1936
*587 FILLER_0_195
*588 FILLER_0_2
*589 FILLER_0_203
*590 FILLER_0_207
*591 FILLER_0_209
*592 FILLER_0_212
*593 FILLER_0_23
*594 FILLER_0_244
*595 FILLER_0_247
*596 FILLER_0_279
*597 FILLER_0_282
*598 FILLER_0_31
*599 FILLER_0_314
*600 FILLER_0_317
*601 FILLER_0_333
*602 FILLER_0_341
*603 FILLER_0_347
*604 FILLER_0_349
*605 FILLER_0_352
*606 FILLER_0_360
*607 FILLER_0_365
*608 FILLER_0_37
*609 FILLER_0_373
*610 FILLER_0_377
*611 FILLER_0_383
*612 FILLER_0_387
*613 FILLER_0_395
*614 FILLER_0_401
*615 FILLER_0_417
*616 FILLER_0_419
*617 FILLER_0_422
*618 FILLER_0_426
*619 FILLER_0_431
*620 FILLER_0_439
*621 FILLER_0_443
*622 FILLER_0_449
*623 FILLER_0_453
*624 FILLER_0_457
*625 FILLER_0_473
*626 FILLER_0_479
*627 FILLER_0_487
*628 FILLER_0_489
*629 FILLER_0_492
*630 FILLER_0_497
*631 FILLER_0_513
*632 FILLER_0_521
*633 FILLER_0_527
*634 FILLER_0_559
*635 FILLER_0_562
*636 FILLER_0_567
*637 FILLER_0_583
*638 FILLER_0_587
*639 FILLER_0_593
*640 FILLER_0_597
*641 FILLER_0_613
*642 FILLER_0_621
*643 FILLER_0_629
*644 FILLER_0_632
*645 FILLER_0_636
*646 FILLER_0_641
*647 FILLER_0_657
*648 FILLER_0_667
*649 FILLER_0_671
*650 FILLER_0_677
*651 FILLER_0_685
*652 FILLER_0_689
*653 FILLER_0_69
*654 FILLER_0_695
*655 FILLER_0_699
*656 FILLER_0_7
*657 FILLER_0_702
*658 FILLER_0_707
*659 FILLER_0_715
*660 FILLER_0_719
*661 FILLER_0_72
*662 FILLER_0_725
*663 FILLER_0_733
*664 FILLER_0_737
*665 FILLER_0_769
*666 FILLER_0_772
*667 FILLER_0_777
*668 FILLER_0_793
*669 FILLER_0_80
*670 FILLER_0_801
*671 FILLER_0_807
*672 FILLER_0_815
*673 FILLER_0_821
*674 FILLER_0_837
*675 FILLER_0_839
*676 FILLER_0_84
*677 FILLER_0_842
*678 FILLER_0_874
*679 FILLER_0_877
*680 FILLER_0_881
*681 FILLER_0_887
*682 FILLER_0_89
*683 FILLER_0_895
*684 FILLER_0_899
*685 FILLER_0_905
*686 FILLER_0_909
*687 FILLER_0_912
*688 FILLER_0_916
*689 FILLER_0_918
*690 FILLER_0_923
*691 FILLER_0_939
*692 FILLER_0_943
*693 FILLER_0_947
*694 FILLER_0_979
*695 FILLER_0_982
*696 FILLER_0_990
*697 FILLER_0_994
*698 FILLER_0_996
*699 FILLER_100_101
*700 FILLER_100_1024
*701 FILLER_100_1028
*702 FILLER_100_1031
*703 FILLER_100_105
*704 FILLER_100_108
*705 FILLER_100_1095
*706 FILLER_100_1099
*707 FILLER_100_1102
*708 FILLER_100_1166
*709 FILLER_100_1170
*710 FILLER_100_1173
*711 FILLER_100_1237
*712 FILLER_100_1241
*713 FILLER_100_1244
*714 FILLER_100_1308
*715 FILLER_100_1312
*716 FILLER_100_1315
*717 FILLER_100_1379
*718 FILLER_100_1383
*719 FILLER_100_1386
*720 FILLER_100_1450
*721 FILLER_100_1454
*722 FILLER_100_1457
*723 FILLER_100_1521
*724 FILLER_100_1525
*725 FILLER_100_1528
*726 FILLER_100_1592
*727 FILLER_100_1596
*728 FILLER_100_1599
*729 FILLER_100_1663
*730 FILLER_100_1667
*731 FILLER_100_1670
*732 FILLER_100_172
*733 FILLER_100_1734
*734 FILLER_100_1738
*735 FILLER_100_1741
*736 FILLER_100_176
*737 FILLER_100_179
*738 FILLER_100_1805
*739 FILLER_100_1809
*740 FILLER_100_1812
*741 FILLER_100_1876
*742 FILLER_100_1880
*743 FILLER_100_1883
*744 FILLER_100_1915
*745 FILLER_100_1931
*746 FILLER_100_1935
*747 FILLER_100_1937
*748 FILLER_100_2
*749 FILLER_100_243
*750 FILLER_100_247
*751 FILLER_100_250
*752 FILLER_100_314
*753 FILLER_100_318
*754 FILLER_100_321
*755 FILLER_100_34
*756 FILLER_100_37
*757 FILLER_100_385
*758 FILLER_100_389
*759 FILLER_100_392
*760 FILLER_100_456
*761 FILLER_100_460
*762 FILLER_100_463
*763 FILLER_100_527
*764 FILLER_100_531
*765 FILLER_100_534
*766 FILLER_100_598
*767 FILLER_100_602
*768 FILLER_100_605
*769 FILLER_100_669
*770 FILLER_100_673
*771 FILLER_100_676
*772 FILLER_100_740
*773 FILLER_100_744
*774 FILLER_100_747
*775 FILLER_100_811
*776 FILLER_100_815
*777 FILLER_100_818
*778 FILLER_100_882
*779 FILLER_100_886
*780 FILLER_100_889
*781 FILLER_100_953
*782 FILLER_100_957
*783 FILLER_100_960
*784 FILLER_101_1060
*785 FILLER_101_1064
*786 FILLER_101_1067
*787 FILLER_101_1131
*788 FILLER_101_1135
*789 FILLER_101_1138
*790 FILLER_101_1202
*791 FILLER_101_1206
*792 FILLER_101_1209
*793 FILLER_101_1273
*794 FILLER_101_1277
*795 FILLER_101_1280
*796 FILLER_101_1344
*797 FILLER_101_1348
*798 FILLER_101_1351
*799 FILLER_101_137
*800 FILLER_101_141
*801 FILLER_101_1415
*802 FILLER_101_1419
*803 FILLER_101_1422
*804 FILLER_101_144
*805 FILLER_101_1486
*806 FILLER_101_1490
*807 FILLER_101_1493
*808 FILLER_101_1557
*809 FILLER_101_1561
*810 FILLER_101_1564
*811 FILLER_101_1628
*812 FILLER_101_1632
*813 FILLER_101_1635
*814 FILLER_101_1699
*815 FILLER_101_1703
*816 FILLER_101_1706
*817 FILLER_101_1770
*818 FILLER_101_1774
*819 FILLER_101_1777
*820 FILLER_101_1841
*821 FILLER_101_1845
*822 FILLER_101_1848
*823 FILLER_101_1912
*824 FILLER_101_1916
*825 FILLER_101_1919
*826 FILLER_101_1935
*827 FILLER_101_1937
*828 FILLER_101_2
*829 FILLER_101_208
*830 FILLER_101_212
*831 FILLER_101_215
*832 FILLER_101_279
*833 FILLER_101_283
*834 FILLER_101_286
*835 FILLER_101_350
*836 FILLER_101_354
*837 FILLER_101_357
*838 FILLER_101_421
*839 FILLER_101_425
*840 FILLER_101_428
*841 FILLER_101_492
*842 FILLER_101_496
*843 FILLER_101_499
*844 FILLER_101_563
*845 FILLER_101_567
*846 FILLER_101_570
*847 FILLER_101_634
*848 FILLER_101_638
*849 FILLER_101_641
*850 FILLER_101_66
*851 FILLER_101_70
*852 FILLER_101_705
*853 FILLER_101_709
*854 FILLER_101_712
*855 FILLER_101_73
*856 FILLER_101_776
*857 FILLER_101_780
*858 FILLER_101_783
*859 FILLER_101_847
*860 FILLER_101_851
*861 FILLER_101_854
*862 FILLER_101_918
*863 FILLER_101_922
*864 FILLER_101_925
*865 FILLER_101_989
*866 FILLER_101_993
*867 FILLER_101_996
*868 FILLER_102_101
*869 FILLER_102_1024
*870 FILLER_102_1028
*871 FILLER_102_1031
*872 FILLER_102_105
*873 FILLER_102_108
*874 FILLER_102_1095
*875 FILLER_102_1099
*876 FILLER_102_1102
*877 FILLER_102_1166
*878 FILLER_102_1170
*879 FILLER_102_1173
*880 FILLER_102_1237
*881 FILLER_102_1241
*882 FILLER_102_1244
*883 FILLER_102_1308
*884 FILLER_102_1312
*885 FILLER_102_1315
*886 FILLER_102_1379
*887 FILLER_102_1383
*888 FILLER_102_1386
*889 FILLER_102_1450
*890 FILLER_102_1454
*891 FILLER_102_1457
*892 FILLER_102_1521
*893 FILLER_102_1525
*894 FILLER_102_1528
*895 FILLER_102_1592
*896 FILLER_102_1596
*897 FILLER_102_1599
*898 FILLER_102_1663
*899 FILLER_102_1667
*900 FILLER_102_1670
*901 FILLER_102_172
*902 FILLER_102_1734
*903 FILLER_102_1738
*904 FILLER_102_1741
*905 FILLER_102_176
*906 FILLER_102_179
*907 FILLER_102_1805
*908 FILLER_102_1809
*909 FILLER_102_1812
*910 FILLER_102_1876
*911 FILLER_102_1880
*912 FILLER_102_1883
*913 FILLER_102_1915
*914 FILLER_102_1931
*915 FILLER_102_1937
*916 FILLER_102_2
*917 FILLER_102_243
*918 FILLER_102_247
*919 FILLER_102_250
*920 FILLER_102_314
*921 FILLER_102_318
*922 FILLER_102_321
*923 FILLER_102_34
*924 FILLER_102_37
*925 FILLER_102_385
*926 FILLER_102_389
*927 FILLER_102_392
*928 FILLER_102_456
*929 FILLER_102_460
*930 FILLER_102_463
*931 FILLER_102_527
*932 FILLER_102_531
*933 FILLER_102_534
*934 FILLER_102_598
*935 FILLER_102_602
*936 FILLER_102_605
*937 FILLER_102_669
*938 FILLER_102_673
*939 FILLER_102_676
*940 FILLER_102_740
*941 FILLER_102_744
*942 FILLER_102_747
*943 FILLER_102_811
*944 FILLER_102_815
*945 FILLER_102_818
*946 FILLER_102_882
*947 FILLER_102_886
*948 FILLER_102_889
*949 FILLER_102_953
*950 FILLER_102_957
*951 FILLER_102_960
*952 FILLER_103_1060
*953 FILLER_103_1064
*954 FILLER_103_1067
*955 FILLER_103_1131
*956 FILLER_103_1135
*957 FILLER_103_1138
*958 FILLER_103_1202
*959 FILLER_103_1206
*960 FILLER_103_1209
*961 FILLER_103_1273
*962 FILLER_103_1277
*963 FILLER_103_1280
*964 FILLER_103_1344
*965 FILLER_103_1348
*966 FILLER_103_1351
*967 FILLER_103_137
*968 FILLER_103_141
*969 FILLER_103_1415
*970 FILLER_103_1419
*971 FILLER_103_1422
*972 FILLER_103_144
*973 FILLER_103_1486
*974 FILLER_103_1490
*975 FILLER_103_1493
*976 FILLER_103_1557
*977 FILLER_103_1561
*978 FILLER_103_1564
*979 FILLER_103_1628
*980 FILLER_103_1632
*981 FILLER_103_1635
*982 FILLER_103_1699
*983 FILLER_103_1703
*984 FILLER_103_1706
*985 FILLER_103_1770
*986 FILLER_103_1774
*987 FILLER_103_1777
*988 FILLER_103_1841
*989 FILLER_103_1845
*990 FILLER_103_1848
*991 FILLER_103_1912
*992 FILLER_103_1916
*993 FILLER_103_1919
*994 FILLER_103_1935
*995 FILLER_103_1937
*996 FILLER_103_2
*997 FILLER_103_208
*998 FILLER_103_212
*999 FILLER_103_215
*1000 FILLER_103_279
*1001 FILLER_103_283
*1002 FILLER_103_286
*1003 FILLER_103_350
*1004 FILLER_103_354
*1005 FILLER_103_357
*1006 FILLER_103_421
*1007 FILLER_103_425
*1008 FILLER_103_428
*1009 FILLER_103_492
*1010 FILLER_103_496
*1011 FILLER_103_499
*1012 FILLER_103_563
*1013 FILLER_103_567
*1014 FILLER_103_570
*1015 FILLER_103_634
*1016 FILLER_103_638
*1017 FILLER_103_641
*1018 FILLER_103_66
*1019 FILLER_103_70
*1020 FILLER_103_705
*1021 FILLER_103_709
*1022 FILLER_103_712
*1023 FILLER_103_73
*1024 FILLER_103_776
*1025 FILLER_103_780
*1026 FILLER_103_783
*1027 FILLER_103_847
*1028 FILLER_103_851
*1029 FILLER_103_854
*1030 FILLER_103_918
*1031 FILLER_103_922
*1032 FILLER_103_925
*1033 FILLER_103_989
*1034 FILLER_103_993
*1035 FILLER_103_996
*1036 FILLER_104_101
*1037 FILLER_104_1024
*1038 FILLER_104_1028
*1039 FILLER_104_1031
*1040 FILLER_104_105
*1041 FILLER_104_108
*1042 FILLER_104_1095
*1043 FILLER_104_1099
*1044 FILLER_104_1102
*1045 FILLER_104_1166
*1046 FILLER_104_1170
*1047 FILLER_104_1173
*1048 FILLER_104_1237
*1049 FILLER_104_1241
*1050 FILLER_104_1244
*1051 FILLER_104_1308
*1052 FILLER_104_1312
*1053 FILLER_104_1315
*1054 FILLER_104_1379
*1055 FILLER_104_1383
*1056 FILLER_104_1386
*1057 FILLER_104_1450
*1058 FILLER_104_1454
*1059 FILLER_104_1457
*1060 FILLER_104_1521
*1061 FILLER_104_1525
*1062 FILLER_104_1528
*1063 FILLER_104_1592
*1064 FILLER_104_1596
*1065 FILLER_104_1599
*1066 FILLER_104_1663
*1067 FILLER_104_1667
*1068 FILLER_104_1670
*1069 FILLER_104_172
*1070 FILLER_104_1734
*1071 FILLER_104_1738
*1072 FILLER_104_1741
*1073 FILLER_104_176
*1074 FILLER_104_179
*1075 FILLER_104_1805
*1076 FILLER_104_1809
*1077 FILLER_104_1812
*1078 FILLER_104_1876
*1079 FILLER_104_1880
*1080 FILLER_104_1883
*1081 FILLER_104_1915
*1082 FILLER_104_1931
*1083 FILLER_104_1935
*1084 FILLER_104_1937
*1085 FILLER_104_2
*1086 FILLER_104_243
*1087 FILLER_104_247
*1088 FILLER_104_250
*1089 FILLER_104_314
*1090 FILLER_104_318
*1091 FILLER_104_321
*1092 FILLER_104_34
*1093 FILLER_104_37
*1094 FILLER_104_385
*1095 FILLER_104_389
*1096 FILLER_104_392
*1097 FILLER_104_456
*1098 FILLER_104_460
*1099 FILLER_104_463
*1100 FILLER_104_527
*1101 FILLER_104_531
*1102 FILLER_104_534
*1103 FILLER_104_598
*1104 FILLER_104_602
*1105 FILLER_104_605
*1106 FILLER_104_669
*1107 FILLER_104_673
*1108 FILLER_104_676
*1109 FILLER_104_740
*1110 FILLER_104_744
*1111 FILLER_104_747
*1112 FILLER_104_811
*1113 FILLER_104_815
*1114 FILLER_104_818
*1115 FILLER_104_882
*1116 FILLER_104_886
*1117 FILLER_104_889
*1118 FILLER_104_953
*1119 FILLER_104_957
*1120 FILLER_104_960
*1121 FILLER_105_1060
*1122 FILLER_105_1064
*1123 FILLER_105_1067
*1124 FILLER_105_1131
*1125 FILLER_105_1135
*1126 FILLER_105_1138
*1127 FILLER_105_1202
*1128 FILLER_105_1206
*1129 FILLER_105_1209
*1130 FILLER_105_1273
*1131 FILLER_105_1277
*1132 FILLER_105_1280
*1133 FILLER_105_1344
*1134 FILLER_105_1348
*1135 FILLER_105_1351
*1136 FILLER_105_137
*1137 FILLER_105_141
*1138 FILLER_105_1415
*1139 FILLER_105_1419
*1140 FILLER_105_1422
*1141 FILLER_105_144
*1142 FILLER_105_1486
*1143 FILLER_105_1490
*1144 FILLER_105_1493
*1145 FILLER_105_1557
*1146 FILLER_105_1561
*1147 FILLER_105_1564
*1148 FILLER_105_1628
*1149 FILLER_105_1632
*1150 FILLER_105_1635
*1151 FILLER_105_1699
*1152 FILLER_105_1703
*1153 FILLER_105_1706
*1154 FILLER_105_1770
*1155 FILLER_105_1774
*1156 FILLER_105_1777
*1157 FILLER_105_1841
*1158 FILLER_105_1845
*1159 FILLER_105_1848
*1160 FILLER_105_1912
*1161 FILLER_105_1916
*1162 FILLER_105_1919
*1163 FILLER_105_1935
*1164 FILLER_105_1937
*1165 FILLER_105_2
*1166 FILLER_105_208
*1167 FILLER_105_212
*1168 FILLER_105_215
*1169 FILLER_105_279
*1170 FILLER_105_283
*1171 FILLER_105_286
*1172 FILLER_105_350
*1173 FILLER_105_354
*1174 FILLER_105_357
*1175 FILLER_105_421
*1176 FILLER_105_425
*1177 FILLER_105_428
*1178 FILLER_105_492
*1179 FILLER_105_496
*1180 FILLER_105_499
*1181 FILLER_105_563
*1182 FILLER_105_567
*1183 FILLER_105_570
*1184 FILLER_105_634
*1185 FILLER_105_638
*1186 FILLER_105_641
*1187 FILLER_105_7
*1188 FILLER_105_705
*1189 FILLER_105_709
*1190 FILLER_105_712
*1191 FILLER_105_73
*1192 FILLER_105_776
*1193 FILLER_105_780
*1194 FILLER_105_783
*1195 FILLER_105_847
*1196 FILLER_105_851
*1197 FILLER_105_854
*1198 FILLER_105_918
*1199 FILLER_105_922
*1200 FILLER_105_925
*1201 FILLER_105_989
*1202 FILLER_105_993
*1203 FILLER_105_996
*1204 FILLER_106_101
*1205 FILLER_106_1024
*1206 FILLER_106_1028
*1207 FILLER_106_1031
*1208 FILLER_106_105
*1209 FILLER_106_108
*1210 FILLER_106_1095
*1211 FILLER_106_1099
*1212 FILLER_106_1102
*1213 FILLER_106_1166
*1214 FILLER_106_1170
*1215 FILLER_106_1173
*1216 FILLER_106_1237
*1217 FILLER_106_1241
*1218 FILLER_106_1244
*1219 FILLER_106_1308
*1220 FILLER_106_1312
*1221 FILLER_106_1315
*1222 FILLER_106_1379
*1223 FILLER_106_1383
*1224 FILLER_106_1386
*1225 FILLER_106_1450
*1226 FILLER_106_1454
*1227 FILLER_106_1457
*1228 FILLER_106_1521
*1229 FILLER_106_1525
*1230 FILLER_106_1528
*1231 FILLER_106_1592
*1232 FILLER_106_1596
*1233 FILLER_106_1599
*1234 FILLER_106_1663
*1235 FILLER_106_1667
*1236 FILLER_106_1670
*1237 FILLER_106_172
*1238 FILLER_106_1734
*1239 FILLER_106_1738
*1240 FILLER_106_1741
*1241 FILLER_106_176
*1242 FILLER_106_179
*1243 FILLER_106_1805
*1244 FILLER_106_1809
*1245 FILLER_106_1812
*1246 FILLER_106_1876
*1247 FILLER_106_1880
*1248 FILLER_106_1883
*1249 FILLER_106_1915
*1250 FILLER_106_1931
*1251 FILLER_106_1935
*1252 FILLER_106_1937
*1253 FILLER_106_2
*1254 FILLER_106_243
*1255 FILLER_106_247
*1256 FILLER_106_250
*1257 FILLER_106_314
*1258 FILLER_106_318
*1259 FILLER_106_321
*1260 FILLER_106_34
*1261 FILLER_106_37
*1262 FILLER_106_385
*1263 FILLER_106_389
*1264 FILLER_106_392
*1265 FILLER_106_456
*1266 FILLER_106_460
*1267 FILLER_106_463
*1268 FILLER_106_527
*1269 FILLER_106_531
*1270 FILLER_106_534
*1271 FILLER_106_598
*1272 FILLER_106_602
*1273 FILLER_106_605
*1274 FILLER_106_669
*1275 FILLER_106_673
*1276 FILLER_106_676
*1277 FILLER_106_740
*1278 FILLER_106_744
*1279 FILLER_106_747
*1280 FILLER_106_811
*1281 FILLER_106_815
*1282 FILLER_106_818
*1283 FILLER_106_882
*1284 FILLER_106_886
*1285 FILLER_106_889
*1286 FILLER_106_953
*1287 FILLER_106_957
*1288 FILLER_106_960
*1289 FILLER_107_1060
*1290 FILLER_107_1064
*1291 FILLER_107_1067
*1292 FILLER_107_1131
*1293 FILLER_107_1135
*1294 FILLER_107_1138
*1295 FILLER_107_1202
*1296 FILLER_107_1206
*1297 FILLER_107_1209
*1298 FILLER_107_1273
*1299 FILLER_107_1277
*1300 FILLER_107_1280
*1301 FILLER_107_1344
*1302 FILLER_107_1348
*1303 FILLER_107_1351
*1304 FILLER_107_137
*1305 FILLER_107_141
*1306 FILLER_107_1415
*1307 FILLER_107_1419
*1308 FILLER_107_1422
*1309 FILLER_107_144
*1310 FILLER_107_1486
*1311 FILLER_107_1490
*1312 FILLER_107_1493
*1313 FILLER_107_1557
*1314 FILLER_107_1561
*1315 FILLER_107_1564
*1316 FILLER_107_1628
*1317 FILLER_107_1632
*1318 FILLER_107_1635
*1319 FILLER_107_1699
*1320 FILLER_107_1703
*1321 FILLER_107_1706
*1322 FILLER_107_1770
*1323 FILLER_107_1774
*1324 FILLER_107_1777
*1325 FILLER_107_1841
*1326 FILLER_107_1845
*1327 FILLER_107_1848
*1328 FILLER_107_1912
*1329 FILLER_107_1916
*1330 FILLER_107_1919
*1331 FILLER_107_1935
*1332 FILLER_107_1937
*1333 FILLER_107_2
*1334 FILLER_107_208
*1335 FILLER_107_212
*1336 FILLER_107_215
*1337 FILLER_107_279
*1338 FILLER_107_283
*1339 FILLER_107_286
*1340 FILLER_107_350
*1341 FILLER_107_354
*1342 FILLER_107_357
*1343 FILLER_107_421
*1344 FILLER_107_425
*1345 FILLER_107_428
*1346 FILLER_107_492
*1347 FILLER_107_496
*1348 FILLER_107_499
*1349 FILLER_107_5
*1350 FILLER_107_563
*1351 FILLER_107_567
*1352 FILLER_107_570
*1353 FILLER_107_634
*1354 FILLER_107_638
*1355 FILLER_107_641
*1356 FILLER_107_69
*1357 FILLER_107_705
*1358 FILLER_107_709
*1359 FILLER_107_712
*1360 FILLER_107_73
*1361 FILLER_107_776
*1362 FILLER_107_780
*1363 FILLER_107_783
*1364 FILLER_107_847
*1365 FILLER_107_851
*1366 FILLER_107_854
*1367 FILLER_107_918
*1368 FILLER_107_922
*1369 FILLER_107_925
*1370 FILLER_107_989
*1371 FILLER_107_993
*1372 FILLER_107_996
*1373 FILLER_108_101
*1374 FILLER_108_1024
*1375 FILLER_108_1028
*1376 FILLER_108_1031
*1377 FILLER_108_105
*1378 FILLER_108_108
*1379 FILLER_108_1095
*1380 FILLER_108_1099
*1381 FILLER_108_1102
*1382 FILLER_108_1166
*1383 FILLER_108_1170
*1384 FILLER_108_1173
*1385 FILLER_108_1237
*1386 FILLER_108_1241
*1387 FILLER_108_1244
*1388 FILLER_108_1308
*1389 FILLER_108_1312
*1390 FILLER_108_1315
*1391 FILLER_108_1379
*1392 FILLER_108_1383
*1393 FILLER_108_1386
*1394 FILLER_108_1450
*1395 FILLER_108_1454
*1396 FILLER_108_1457
*1397 FILLER_108_1521
*1398 FILLER_108_1525
*1399 FILLER_108_1528
*1400 FILLER_108_1592
*1401 FILLER_108_1596
*1402 FILLER_108_1599
*1403 FILLER_108_1663
*1404 FILLER_108_1667
*1405 FILLER_108_1670
*1406 FILLER_108_172
*1407 FILLER_108_1734
*1408 FILLER_108_1738
*1409 FILLER_108_1741
*1410 FILLER_108_176
*1411 FILLER_108_179
*1412 FILLER_108_1805
*1413 FILLER_108_1809
*1414 FILLER_108_1812
*1415 FILLER_108_1876
*1416 FILLER_108_1880
*1417 FILLER_108_1883
*1418 FILLER_108_1915
*1419 FILLER_108_1931
*1420 FILLER_108_1937
*1421 FILLER_108_2
*1422 FILLER_108_243
*1423 FILLER_108_247
*1424 FILLER_108_25
*1425 FILLER_108_250
*1426 FILLER_108_314
*1427 FILLER_108_318
*1428 FILLER_108_321
*1429 FILLER_108_33
*1430 FILLER_108_37
*1431 FILLER_108_385
*1432 FILLER_108_389
*1433 FILLER_108_392
*1434 FILLER_108_456
*1435 FILLER_108_460
*1436 FILLER_108_463
*1437 FILLER_108_527
*1438 FILLER_108_531
*1439 FILLER_108_534
*1440 FILLER_108_598
*1441 FILLER_108_602
*1442 FILLER_108_605
*1443 FILLER_108_669
*1444 FILLER_108_673
*1445 FILLER_108_676
*1446 FILLER_108_740
*1447 FILLER_108_744
*1448 FILLER_108_747
*1449 FILLER_108_811
*1450 FILLER_108_815
*1451 FILLER_108_818
*1452 FILLER_108_882
*1453 FILLER_108_886
*1454 FILLER_108_889
*1455 FILLER_108_9
*1456 FILLER_108_953
*1457 FILLER_108_957
*1458 FILLER_108_960
*1459 FILLER_109_1060
*1460 FILLER_109_1064
*1461 FILLER_109_1067
*1462 FILLER_109_1131
*1463 FILLER_109_1135
*1464 FILLER_109_1138
*1465 FILLER_109_1202
*1466 FILLER_109_1206
*1467 FILLER_109_1209
*1468 FILLER_109_1273
*1469 FILLER_109_1277
*1470 FILLER_109_1280
*1471 FILLER_109_1344
*1472 FILLER_109_1348
*1473 FILLER_109_1351
*1474 FILLER_109_137
*1475 FILLER_109_141
*1476 FILLER_109_1415
*1477 FILLER_109_1419
*1478 FILLER_109_1422
*1479 FILLER_109_144
*1480 FILLER_109_1486
*1481 FILLER_109_1490
*1482 FILLER_109_1493
*1483 FILLER_109_1557
*1484 FILLER_109_1561
*1485 FILLER_109_1564
*1486 FILLER_109_1628
*1487 FILLER_109_1632
*1488 FILLER_109_1635
*1489 FILLER_109_1699
*1490 FILLER_109_1703
*1491 FILLER_109_1706
*1492 FILLER_109_1770
*1493 FILLER_109_1774
*1494 FILLER_109_1777
*1495 FILLER_109_1841
*1496 FILLER_109_1845
*1497 FILLER_109_1848
*1498 FILLER_109_1912
*1499 FILLER_109_1916
*1500 FILLER_109_1919
*1501 FILLER_109_1935
*1502 FILLER_109_1937
*1503 FILLER_109_2
*1504 FILLER_109_208
*1505 FILLER_109_212
*1506 FILLER_109_215
*1507 FILLER_109_279
*1508 FILLER_109_283
*1509 FILLER_109_286
*1510 FILLER_109_350
*1511 FILLER_109_354
*1512 FILLER_109_357
*1513 FILLER_109_421
*1514 FILLER_109_425
*1515 FILLER_109_428
*1516 FILLER_109_492
*1517 FILLER_109_496
*1518 FILLER_109_499
*1519 FILLER_109_563
*1520 FILLER_109_567
*1521 FILLER_109_570
*1522 FILLER_109_634
*1523 FILLER_109_638
*1524 FILLER_109_641
*1525 FILLER_109_66
*1526 FILLER_109_70
*1527 FILLER_109_705
*1528 FILLER_109_709
*1529 FILLER_109_712
*1530 FILLER_109_73
*1531 FILLER_109_776
*1532 FILLER_109_780
*1533 FILLER_109_783
*1534 FILLER_109_847
*1535 FILLER_109_851
*1536 FILLER_109_854
*1537 FILLER_109_918
*1538 FILLER_109_922
*1539 FILLER_109_925
*1540 FILLER_109_989
*1541 FILLER_109_993
*1542 FILLER_109_996
*1543 FILLER_10_101
*1544 FILLER_10_1024
*1545 FILLER_10_1028
*1546 FILLER_10_1031
*1547 FILLER_10_105
*1548 FILLER_10_108
*1549 FILLER_10_1095
*1550 FILLER_10_1099
*1551 FILLER_10_1102
*1552 FILLER_10_1166
*1553 FILLER_10_1170
*1554 FILLER_10_1173
*1555 FILLER_10_1237
*1556 FILLER_10_1241
*1557 FILLER_10_1244
*1558 FILLER_10_1308
*1559 FILLER_10_1312
*1560 FILLER_10_1315
*1561 FILLER_10_1379
*1562 FILLER_10_1383
*1563 FILLER_10_1386
*1564 FILLER_10_1450
*1565 FILLER_10_1454
*1566 FILLER_10_1457
*1567 FILLER_10_1521
*1568 FILLER_10_1525
*1569 FILLER_10_1528