*SPEF "ieee 1481-1999"
*DESIGN "user_project_wrapper"
*DATE "11:11:11 Fri 11 11, 1111"
*VENDOR "OpenRCX"
*PROGRAM "Parallel Extraction"
*VERSION "1.0"
*DESIGN_FLOW "NAME_SCOPE LOCAL" "PIN_CAP NONE"
*DIVIDER /
*DELIMITER :
*BUS_DELIMITER []
*T_UNIT 1 NS
*C_UNIT 1 PF
*R_UNIT 1 OHM
*L_UNIT 1 HENRY

*NAME_MAP
*1 io_in[0]
*2 io_in[10]
*3 io_in[11]
*4 io_in[12]
*5 io_in[13]
*6 io_in[14]
*7 io_in[15]
*8 io_in[16]
*9 io_in[17]
*10 io_in[18]
*11 io_in[19]
*12 io_in[1]
*13 io_in[20]
*14 io_in[21]
*15 io_in[22]
*16 io_in[23]
*17 io_in[24]
*18 io_in[25]
*19 io_in[26]
*20 io_in[27]
*21 io_in[28]
*22 io_in[29]
*23 io_in[2]
*24 io_in[30]
*25 io_in[31]
*26 io_in[32]
*27 io_in[33]
*28 io_in[34]
*29 io_in[35]
*30 io_in[36]
*31 io_in[37]
*32 io_in[3]
*33 io_in[4]
*34 io_in[5]
*35 io_in[6]
*36 io_in[7]
*37 io_in[8]
*38 io_in[9]
*39 io_oeb[0]
*40 io_oeb[10]
*41 io_oeb[11]
*42 io_oeb[12]
*43 io_oeb[13]
*44 io_oeb[14]
*45 io_oeb[15]
*46 io_oeb[16]
*47 io_oeb[17]
*48 io_oeb[18]
*49 io_oeb[19]
*50 io_oeb[1]
*51 io_oeb[20]
*52 io_oeb[21]
*53 io_oeb[22]
*54 io_oeb[23]
*55 io_oeb[24]
*56 io_oeb[25]
*57 io_oeb[26]
*58 io_oeb[27]
*59 io_oeb[28]
*60 io_oeb[29]
*61 io_oeb[2]
*62 io_oeb[30]
*63 io_oeb[31]
*64 io_oeb[32]
*65 io_oeb[33]
*66 io_oeb[34]
*67 io_oeb[35]
*68 io_oeb[36]
*69 io_oeb[37]
*70 io_oeb[3]
*71 io_oeb[4]
*72 io_oeb[5]
*73 io_oeb[6]
*74 io_oeb[7]
*75 io_oeb[8]
*76 io_oeb[9]
*77 io_out[0]
*78 io_out[10]
*79 io_out[11]
*80 io_out[12]
*81 io_out[13]
*82 io_out[14]
*83 io_out[15]
*84 io_out[16]
*85 io_out[17]
*86 io_out[18]
*87 io_out[19]
*88 io_out[1]
*89 io_out[20]
*90 io_out[21]
*91 io_out[22]
*92 io_out[23]
*93 io_out[24]
*94 io_out[25]
*95 io_out[26]
*96 io_out[27]
*97 io_out[28]
*98 io_out[29]
*99 io_out[2]
*100 io_out[30]
*101 io_out[31]
*102 io_out[32]
*103 io_out[33]
*104 io_out[34]
*105 io_out[35]
*106 io_out[36]
*107 io_out[37]
*108 io_out[3]
*109 io_out[4]
*110 io_out[5]
*111 io_out[6]
*112 io_out[7]
*113 io_out[8]
*114 io_out[9]
*115 la_data_in[0]
*116 la_data_in[10]
*117 la_data_in[11]
*118 la_data_in[12]
*119 la_data_in[13]
*120 la_data_in[14]
*121 la_data_in[15]
*122 la_data_in[16]
*123 la_data_in[17]
*124 la_data_in[18]
*125 la_data_in[19]
*126 la_data_in[1]
*127 la_data_in[20]
*128 la_data_in[21]
*129 la_data_in[22]
*130 la_data_in[23]
*131 la_data_in[24]
*132 la_data_in[25]
*133 la_data_in[26]
*134 la_data_in[27]
*135 la_data_in[28]
*136 la_data_in[29]
*137 la_data_in[2]
*138 la_data_in[30]
*139 la_data_in[31]
*140 la_data_in[32]
*141 la_data_in[33]
*142 la_data_in[34]
*143 la_data_in[35]
*144 la_data_in[36]
*145 la_data_in[37]
*146 la_data_in[38]
*147 la_data_in[39]
*148 la_data_in[3]
*149 la_data_in[40]
*150 la_data_in[41]
*151 la_data_in[42]
*152 la_data_in[43]
*153 la_data_in[44]
*154 la_data_in[45]
*155 la_data_in[46]
*156 la_data_in[47]
*157 la_data_in[48]
*158 la_data_in[49]
*159 la_data_in[4]
*160 la_data_in[50]
*161 la_data_in[51]
*162 la_data_in[52]
*163 la_data_in[53]
*164 la_data_in[54]
*165 la_data_in[55]
*166 la_data_in[56]
*167 la_data_in[57]
*168 la_data_in[58]
*169 la_data_in[59]
*170 la_data_in[5]
*171 la_data_in[60]
*172 la_data_in[61]
*173 la_data_in[62]
*174 la_data_in[63]
*175 la_data_in[6]
*176 la_data_in[7]
*177 la_data_in[8]
*178 la_data_in[9]
*179 la_data_out[0]
*180 la_data_out[10]
*181 la_data_out[11]
*182 la_data_out[12]
*183 la_data_out[13]
*184 la_data_out[14]
*185 la_data_out[15]
*186 la_data_out[16]
*187 la_data_out[17]
*188 la_data_out[18]
*189 la_data_out[19]
*190 la_data_out[1]
*191 la_data_out[20]
*192 la_data_out[21]
*193 la_data_out[22]
*194 la_data_out[23]
*195 la_data_out[24]
*196 la_data_out[25]
*197 la_data_out[26]
*198 la_data_out[27]
*199 la_data_out[28]
*200 la_data_out[29]
*201 la_data_out[2]
*202 la_data_out[30]
*203 la_data_out[31]
*204 la_data_out[32]
*205 la_data_out[33]
*206 la_data_out[34]
*207 la_data_out[35]
*208 la_data_out[36]
*209 la_data_out[37]
*210 la_data_out[38]
*211 la_data_out[39]
*212 la_data_out[3]
*213 la_data_out[40]
*214 la_data_out[41]
*215 la_data_out[42]
*216 la_data_out[43]
*217 la_data_out[44]
*218 la_data_out[45]
*219 la_data_out[46]
*220 la_data_out[47]
*221 la_data_out[48]
*222 la_data_out[49]
*223 la_data_out[4]
*224 la_data_out[50]
*225 la_data_out[51]
*226 la_data_out[52]
*227 la_data_out[53]
*228 la_data_out[54]
*229 la_data_out[55]
*230 la_data_out[56]
*231 la_data_out[57]
*232 la_data_out[58]
*233 la_data_out[59]
*234 la_data_out[5]
*235 la_data_out[60]
*236 la_data_out[61]
*237 la_data_out[62]
*238 la_data_out[63]
*239 la_data_out[6]
*240 la_data_out[7]
*241 la_data_out[8]
*242 la_data_out[9]
*243 la_oenb[0]
*244 la_oenb[10]
*245 la_oenb[11]
*246 la_oenb[12]
*247 la_oenb[13]
*248 la_oenb[14]
*249 la_oenb[15]
*250 la_oenb[16]
*251 la_oenb[17]
*252 la_oenb[18]
*253 la_oenb[19]
*254 la_oenb[1]
*255 la_oenb[20]
*256 la_oenb[21]
*257 la_oenb[22]
*258 la_oenb[23]
*259 la_oenb[24]
*260 la_oenb[25]
*261 la_oenb[26]
*262 la_oenb[27]
*263 la_oenb[28]
*264 la_oenb[29]
*265 la_oenb[2]
*266 la_oenb[30]
*267 la_oenb[31]
*268 la_oenb[32]
*269 la_oenb[33]
*270 la_oenb[34]
*271 la_oenb[35]
*272 la_oenb[36]
*273 la_oenb[37]
*274 la_oenb[38]
*275 la_oenb[39]
*276 la_oenb[3]
*277 la_oenb[40]
*278 la_oenb[41]
*279 la_oenb[42]
*280 la_oenb[43]
*281 la_oenb[44]
*282 la_oenb[45]
*283 la_oenb[46]
*284 la_oenb[47]
*285 la_oenb[48]
*286 la_oenb[49]
*287 la_oenb[4]
*288 la_oenb[50]
*289 la_oenb[51]
*290 la_oenb[52]
*291 la_oenb[53]
*292 la_oenb[54]
*293 la_oenb[55]
*294 la_oenb[56]
*295 la_oenb[57]
*296 la_oenb[58]
*297 la_oenb[59]
*298 la_oenb[5]
*299 la_oenb[60]
*300 la_oenb[61]
*301 la_oenb[62]
*302 la_oenb[63]
*303 la_oenb[6]
*304 la_oenb[7]
*305 la_oenb[8]
*306 la_oenb[9]
*307 user_clock2
*308 user_irq[0]
*309 user_irq[1]
*310 user_irq[2]
*313 wb_clk_i
*314 wb_rst_i
*315 wbs_ack_o
*316 wbs_adr_i[0]
*317 wbs_adr_i[10]
*318 wbs_adr_i[11]
*319 wbs_adr_i[12]
*320 wbs_adr_i[13]
*321 wbs_adr_i[14]
*322 wbs_adr_i[15]
*323 wbs_adr_i[16]
*324 wbs_adr_i[17]
*325 wbs_adr_i[18]
*326 wbs_adr_i[19]
*327 wbs_adr_i[1]
*328 wbs_adr_i[20]
*329 wbs_adr_i[21]
*330 wbs_adr_i[22]
*331 wbs_adr_i[23]
*332 wbs_adr_i[24]
*333 wbs_adr_i[25]
*334 wbs_adr_i[26]
*335 wbs_adr_i[27]
*336 wbs_adr_i[28]
*337 wbs_adr_i[29]
*338 wbs_adr_i[2]
*339 wbs_adr_i[30]
*340 wbs_adr_i[31]
*341 wbs_adr_i[3]
*342 wbs_adr_i[4]
*343 wbs_adr_i[5]
*344 wbs_adr_i[6]
*345 wbs_adr_i[7]
*346 wbs_adr_i[8]
*347 wbs_adr_i[9]
*348 wbs_cyc_i
*349 wbs_dat_i[0]
*350 wbs_dat_i[10]
*351 wbs_dat_i[11]
*352 wbs_dat_i[12]
*353 wbs_dat_i[13]
*354 wbs_dat_i[14]
*355 wbs_dat_i[15]
*356 wbs_dat_i[16]
*357 wbs_dat_i[17]
*358 wbs_dat_i[18]
*359 wbs_dat_i[19]
*360 wbs_dat_i[1]
*361 wbs_dat_i[20]
*362 wbs_dat_i[21]
*363 wbs_dat_i[22]
*364 wbs_dat_i[23]
*365 wbs_dat_i[24]
*366 wbs_dat_i[25]
*367 wbs_dat_i[26]
*368 wbs_dat_i[27]
*369 wbs_dat_i[28]
*370 wbs_dat_i[29]
*371 wbs_dat_i[2]
*372 wbs_dat_i[30]
*373 wbs_dat_i[31]
*374 wbs_dat_i[3]
*375 wbs_dat_i[4]
*376 wbs_dat_i[5]
*377 wbs_dat_i[6]
*378 wbs_dat_i[7]
*379 wbs_dat_i[8]
*380 wbs_dat_i[9]
*381 wbs_dat_o[0]
*382 wbs_dat_o[10]
*383 wbs_dat_o[11]
*384 wbs_dat_o[12]
*385 wbs_dat_o[13]
*386 wbs_dat_o[14]
*387 wbs_dat_o[15]
*388 wbs_dat_o[16]
*389 wbs_dat_o[17]
*390 wbs_dat_o[18]
*391 wbs_dat_o[19]
*392 wbs_dat_o[1]
*393 wbs_dat_o[20]
*394 wbs_dat_o[21]
*395 wbs_dat_o[22]
*396 wbs_dat_o[23]
*397 wbs_dat_o[24]
*398 wbs_dat_o[25]
*399 wbs_dat_o[26]
*400 wbs_dat_o[27]
*401 wbs_dat_o[28]
*402 wbs_dat_o[29]
*403 wbs_dat_o[2]
*404 wbs_dat_o[30]
*405 wbs_dat_o[31]
*406 wbs_dat_o[3]
*407 wbs_dat_o[4]
*408 wbs_dat_o[5]
*409 wbs_dat_o[6]
*410 wbs_dat_o[7]
*411 wbs_dat_o[8]
*412 wbs_dat_o[9]
*413 wbs_sel_i[0]
*414 wbs_sel_i[1]
*415 wbs_sel_i[2]
*416 wbs_sel_i[3]
*417 wbs_stb_i
*418 wbs_we_i
*419 mprj

*PORTS
io_in[0] I
io_in[10] I
io_in[11] I
io_in[12] I
io_in[13] I
io_in[14] I
io_in[15] I
io_in[16] I
io_in[17] I
io_in[18] I
io_in[19] I
io_in[1] I
io_in[20] I
io_in[21] I
io_in[22] I
io_in[23] I
io_in[24] I
io_in[25] I
io_in[26] I
io_in[27] I
io_in[28] I
io_in[29] I
io_in[2] I
io_in[30] I
io_in[31] I
io_in[32] I
io_in[33] I
io_in[34] I
io_in[35] I
io_in[36] I
io_in[37] I
io_in[3] I
io_in[4] I
io_in[5] I
io_in[6] I
io_in[7] I
io_in[8] I
io_in[9] I
io_oeb[0] O
io_oeb[10] O
io_oeb[11] O
io_oeb[12] O
io_oeb[13] O
io_oeb[14] O
io_oeb[15] O
io_oeb[16] O
io_oeb[17] O
io_oeb[18] O
io_oeb[19] O
io_oeb[1] O
io_oeb[20] O
io_oeb[21] O
io_oeb[22] O
io_oeb[23] O
io_oeb[24] O
io_oeb[25] O
io_oeb[26] O
io_oeb[27] O
io_oeb[28] O
io_oeb[29] O
io_oeb[2] O
io_oeb[30] O
io_oeb[31] O
io_oeb[32] O
io_oeb[33] O
io_oeb[34] O
io_oeb[35] O
io_oeb[36] O
io_oeb[37] O
io_oeb[3] O
io_oeb[4] O
io_oeb[5] O
io_oeb[6] O
io_oeb[7] O
io_oeb[8] O
io_oeb[9] O
io_out[0] O
io_out[10] O
io_out[11] O
io_out[12] O
io_out[13] O
io_out[14] O
io_out[15] O
io_out[16] O
io_out[17] O
io_out[18] O
io_out[19] O
io_out[1] O
io_out[20] O
io_out[21] O
io_out[22] O
io_out[23] O
io_out[24] O
io_out[25] O
io_out[26] O
io_out[27] O
io_out[28] O
io_out[29] O
io_out[2] O
io_out[30] O
io_out[31] O
io_out[32] O
io_out[33] O
io_out[34] O
io_out[35] O
io_out[36] O
io_out[37] O
io_out[3] O
io_out[4] O
io_out[5] O
io_out[6] O
io_out[7] O
io_out[8] O
io_out[9] O
la_data_in[0] I
la_data_in[10] I
la_data_in[11] I
la_data_in[12] I
la_data_in[13] I
la_data_in[14] I
la_data_in[15] I
la_data_in[16] I
la_data_in[17] I
la_data_in[18] I
la_data_in[19] I
la_data_in[1] I
la_data_in[20] I
la_data_in[21] I
la_data_in[22] I
la_data_in[23] I
la_data_in[24] I
la_data_in[25] I
la_data_in[26] I
la_data_in[27] I
la_data_in[28] I
la_data_in[29] I
la_data_in[2] I
la_data_in[30] I
la_data_in[31] I
la_data_in[32] I
la_data_in[33] I
la_data_in[34] I
la_data_in[35] I
la_data_in[36] I
la_data_in[37] I
la_data_in[38] I
la_data_in[39] I
la_data_in[3] I
la_data_in[40] I
la_data_in[41] I
la_data_in[42] I
la_data_in[43] I
la_data_in[44] I
la_data_in[45] I
la_data_in[46] I
la_data_in[47] I
la_data_in[48] I
la_data_in[49] I
la_data_in[4] I
la_data_in[50] I
la_data_in[51] I
la_data_in[52] I
la_data_in[53] I
la_data_in[54] I
la_data_in[55] I
la_data_in[56] I
la_data_in[57] I
la_data_in[58] I
la_data_in[59] I
la_data_in[5] I
la_data_in[60] I
la_data_in[61] I
la_data_in[62] I
la_data_in[63] I
la_data_in[6] I
la_data_in[7] I
la_data_in[8] I
la_data_in[9] I
la_data_out[0] O
la_data_out[10] O
la_data_out[11] O
la_data_out[12] O
la_data_out[13] O
la_data_out[14] O
la_data_out[15] O
la_data_out[16] O
la_data_out[17] O
la_data_out[18] O
la_data_out[19] O
la_data_out[1] O
la_data_out[20] O
la_data_out[21] O
la_data_out[22] O
la_data_out[23] O
la_data_out[24] O
la_data_out[25] O
la_data_out[26] O
la_data_out[27] O
la_data_out[28] O
la_data_out[29] O
la_data_out[2] O
la_data_out[30] O
la_data_out[31] O
la_data_out[32] O
la_data_out[33] O
la_data_out[34] O
la_data_out[35] O
la_data_out[36] O
la_data_out[37] O
la_data_out[38] O
la_data_out[39] O
la_data_out[3] O
la_data_out[40] O
la_data_out[41] O
la_data_out[42] O
la_data_out[43] O
la_data_out[44] O
la_data_out[45] O
la_data_out[46] O
la_data_out[47] O
la_data_out[48] O
la_data_out[49] O
la_data_out[4] O
la_data_out[50] O
la_data_out[51] O
la_data_out[52] O
la_data_out[53] O
la_data_out[54] O
la_data_out[55] O
la_data_out[56] O
la_data_out[57] O
la_data_out[58] O
la_data_out[59] O
la_data_out[5] O
la_data_out[60] O
la_data_out[61] O
la_data_out[62] O
la_data_out[63] O
la_data_out[6] O
la_data_out[7] O
la_data_out[8] O
la_data_out[9] O
la_oenb[0] I
la_oenb[10] I
la_oenb[11] I
la_oenb[12] I
la_oenb[13] I
la_oenb[14] I
la_oenb[15] I
la_oenb[16] I
la_oenb[17] I
la_oenb[18] I
la_oenb[19] I
la_oenb[1] I
la_oenb[20] I
la_oenb[21] I
la_oenb[22] I
la_oenb[23] I
la_oenb[24] I
la_oenb[25] I
la_oenb[26] I
la_oenb[27] I
la_oenb[28] I
la_oenb[29] I
la_oenb[2] I
la_oenb[30] I
la_oenb[31] I
la_oenb[32] I
la_oenb[33] I
la_oenb[34] I
la_oenb[35] I
la_oenb[36] I
la_oenb[37] I
la_oenb[38] I
la_oenb[39] I
la_oenb[3] I
la_oenb[40] I
la_oenb[41] I
la_oenb[42] I
la_oenb[43] I
la_oenb[44] I
la_oenb[45] I
la_oenb[46] I
la_oenb[47] I
la_oenb[48] I
la_oenb[49] I
la_oenb[4] I
la_oenb[50] I
la_oenb[51] I
la_oenb[52] I
la_oenb[53] I
la_oenb[54] I
la_oenb[55] I
la_oenb[56] I
la_oenb[57] I
la_oenb[58] I
la_oenb[59] I
la_oenb[5] I
la_oenb[60] I
la_oenb[61] I
la_oenb[62] I
la_oenb[63] I
la_oenb[6] I
la_oenb[7] I
la_oenb[8] I
la_oenb[9] I
user_clock2 I
user_irq[0] O
user_irq[1] O
user_irq[2] O
wb_clk_i I
wb_rst_i I
wbs_ack_o O
wbs_adr_i[0] I
wbs_adr_i[10] I
wbs_adr_i[11] I
wbs_adr_i[12] I
wbs_adr_i[13] I
wbs_adr_i[14] I
wbs_adr_i[15] I
wbs_adr_i[16] I
wbs_adr_i[17] I
wbs_adr_i[18] I
wbs_adr_i[19] I
wbs_adr_i[1] I
wbs_adr_i[20] I
wbs_adr_i[21] I
wbs_adr_i[22] I
wbs_adr_i[23] I
wbs_adr_i[24] I
wbs_adr_i[25] I
wbs_adr_i[26] I
wbs_adr_i[27] I
wbs_adr_i[28] I
wbs_adr_i[29] I
wbs_adr_i[2] I
wbs_adr_i[30] I
wbs_adr_i[31] I
wbs_adr_i[3] I
wbs_adr_i[4] I
wbs_adr_i[5] I
wbs_adr_i[6] I
wbs_adr_i[7] I
wbs_adr_i[8] I
wbs_adr_i[9] I
wbs_cyc_i I
wbs_dat_i[0] I
wbs_dat_i[10] I
wbs_dat_i[11] I
wbs_dat_i[12] I
wbs_dat_i[13] I
wbs_dat_i[14] I
wbs_dat_i[15] I
wbs_dat_i[16] I
wbs_dat_i[17] I
wbs_dat_i[18] I
wbs_dat_i[19] I
wbs_dat_i[1] I
wbs_dat_i[20] I
wbs_dat_i[21] I
wbs_dat_i[22] I
wbs_dat_i[23] I
wbs_dat_i[24] I
wbs_dat_i[25] I
wbs_dat_i[26] I
wbs_dat_i[27] I
wbs_dat_i[28] I
wbs_dat_i[29] I
wbs_dat_i[2] I
wbs_dat_i[30] I
wbs_dat_i[31] I
wbs_dat_i[3] I
wbs_dat_i[4] I
wbs_dat_i[5] I
wbs_dat_i[6] I
wbs_dat_i[7] I
wbs_dat_i[8] I
wbs_dat_i[9] I
wbs_dat_o[0] O
wbs_dat_o[10] O
wbs_dat_o[11] O
wbs_dat_o[12] O
wbs_dat_o[13] O
wbs_dat_o[14] O
wbs_dat_o[15] O
wbs_dat_o[16] O
wbs_dat_o[17] O
wbs_dat_o[18] O
wbs_dat_o[19] O
wbs_dat_o[1] O
wbs_dat_o[20] O
wbs_dat_o[21] O
wbs_dat_o[22] O
wbs_dat_o[23] O
wbs_dat_o[24] O
wbs_dat_o[25] O
wbs_dat_o[26] O
wbs_dat_o[27] O
wbs_dat_o[28] O
wbs_dat_o[29] O
wbs_dat_o[2] O
wbs_dat_o[30] O
wbs_dat_o[31] O
wbs_dat_o[3] O
wbs_dat_o[4] O
wbs_dat_o[5] O
wbs_dat_o[6] O
wbs_dat_o[7] O
wbs_dat_o[8] O
wbs_dat_o[9] O
wbs_sel_i[0] I
wbs_sel_i[1] I
wbs_sel_i[2] I
wbs_sel_i[3] I
wbs_stb_i I
wbs_we_i I

*D_NET *1 0.403715
*CONN
*P io_in[0] I
*I *419:io_in[0] I *D tiny_user_project
*CAP
1 io_in[0] 0.00100991
2 *419:io_in[0] 0.000961496
3 *1:14 0.0213414
4 *1:13 0.0203799
5 *1:11 0.0929447
6 *1:10 0.0929447
7 *1:8 0.0333679
8 *1:7 0.0343778
9 *1:14 *4:16 0.0101767
10 *1:14 *120:19 0.0875146
11 *1:14 *233:11 0.00190296
12 *1:14 *310:11 0.00679347
*RES
1 io_in[0] *1:7 12.825 
2 *1:7 *1:8 256.95 
3 *1:8 *1:10 4.5 
4 *1:10 *1:11 698.31 
5 *1:11 *1:13 4.5 
6 *1:13 *1:14 295.65 
7 *1:14 *419:io_in[0] 20.52 
*END

*D_NET *2 0.348493
*CONN
*P io_in[10] I
*I *419:io_in[10] I *D tiny_user_project
*CAP
1 io_in[10] 0.00388182
2 *419:io_in[10] 0.00174994
3 *2:14 0.00651591
4 *2:13 0.00476597
5 *2:11 0.0739816
6 *2:10 0.0778634
7 *2:10 io_out[10] 0.00187431
8 *2:11 *53:16 0.158653
9 *2:11 *167:16 0
10 *2:11 *219:10 0
11 *2:14 *75:11 0.0192071
*RES
1 io_in[10] *2:10 40.815 
2 *2:10 *2:11 704.07 
3 *2:11 *2:13 4.5 
4 *2:13 *2:14 57.69 
5 *2:14 *419:io_in[10] 26.1 
*END

*D_NET *3 0.335787
*CONN
*P io_in[11] I
*I *419:io_in[11] I *D tiny_user_project
*CAP
1 io_in[11] 0.000363112
2 *419:io_in[11] 0.00144813
3 *3:16 0.0248816
4 *3:15 0.0234335
5 *3:13 0.112118
6 *3:11 0.112481
7 *3:16 *135:15 0.0608085
8 *3:16 *332:11 0.000253004
*RES
1 io_in[11] *3:11 3.195 
2 *3:11 *3:13 709.65 
3 *3:13 *3:15 4.5 
4 *3:15 *3:16 251.91 
5 *3:16 *419:io_in[11] 23.58 
*END

*D_NET *4 0.256041
*CONN
*P io_in[12] I
*I *419:io_in[12] I *D tiny_user_project
*CAP
1 io_in[12] 0.000167227
2 *419:io_in[12] 0.000922766
3 *4:16 0.0281583
4 *4:15 0.0272355
5 *4:13 0.090368
6 *4:11 0.0905352
7 *4:16 *120:19 0.00847744
8 *1:14 *4:16 0.0101767
*RES
1 io_in[12] *4:11 2.115 
2 *4:11 *4:13 706.41 
3 *4:13 *4:15 4.5 
4 *4:15 *4:16 236.79 
5 *4:16 *419:io_in[12] 20.34 
*END

*D_NET *5 0.313888
*CONN
*P io_in[13] I
*I *419:io_in[13] I *D tiny_user_project
*CAP
1 io_in[13] 0.00104424
2 *419:io_in[13] 0.00257618
3 *5:14 0.0231123
4 *5:13 0.0205361
5 *5:11 0.0908597
6 *5:10 0.0908597
7 *5:8 0.0177556
8 *5:7 0.0187998
9 *5:7 *6:11 0
10 *5:14 *141:15 0.0309064
11 *5:14 *299:15 0.0089088
12 *5:14 *394:12 0.00852956
*RES
1 io_in[13] *5:7 12.825 
2 *5:7 *5:8 136.53 
3 *5:8 *5:10 4.5 
4 *5:10 *5:11 709.29 
5 *5:11 *5:13 4.5 
6 *5:13 *5:14 223.47 
7 *5:14 *419:io_in[13] 31.5 
*END

*D_NET *6 0.321267
*CONN
*P io_in[14] I
*I *419:io_in[14] I *D tiny_user_project
*CAP
1 io_in[14] 0.00123806
2 *419:io_in[14] 0.00341951
3 *6:14 0.050377
4 *6:13 0.0469575
5 *6:11 0.0915652
6 *6:10 0.0915652
7 *6:8 0.00813477
8 *6:7 0.00937283
9 *6:14 *115:19 0.018637
10 *5:7 *6:11 0
*RES
1 io_in[14] *6:7 12.465 
2 *6:7 *6:8 62.55 
3 *6:8 *6:10 4.5 
4 *6:10 *6:11 715.05 
5 *6:11 *6:13 4.5 
6 *6:13 *6:14 379.53 
7 *6:14 *419:io_in[14] 36.9 
*END

*D_NET *7 0.306766
*CONN
*P io_in[15] I
*I *419:io_in[15] I *D tiny_user_project
*CAP
1 io_in[15] 0.00107486
2 *419:io_in[15] 0.000778231
3 *7:11 0.0450108
4 *7:10 0.0442326
5 *7:8 0.037458
6 *7:7 0.0385328
7 *419:io_in[15] *207:14 0.00021484
8 *419:io_in[15] *278:30 0.00161619
9 *419:io_in[15] *387:8 0.000324441
10 *7:8 *9:10 0.000254726
11 *7:8 *10:10 0.00258502
12 *7:8 *15:8 0.0550626
13 *7:8 *46:14 0.0333896
14 *7:8 *83:14 0.0414765
15 *7:8 *86:14 0.00105112
16 *7:8 *89:16 0.00370402
*RES
1 io_in[15] *7:7 12.825 
2 *7:7 *7:8 468.63 
3 *7:8 *7:10 4.5 
4 *7:10 *7:11 335.43 
5 *7:11 *419:io_in[15] 16.875 
*END

*D_NET *8 0.217628
*CONN
*P io_in[16] I
*I *419:io_in[16] I *D tiny_user_project
*CAP
1 io_in[16] 0.000247817
2 *419:io_in[16] 0.000496293
3 *8:22 0.00885323
4 *8:21 0.00863101
5 *8:16 0.021882
6 *8:15 0.0216079
7 *8:13 0.077036
8 *8:11 0.0772838
9 *8:21 *204:11 0.00159018
*RES
1 io_in[16] *8:11 2.655 
2 *8:11 *8:13 588.87 
3 *8:13 *8:15 4.5 
4 *8:15 *8:16 164.43 
5 *8:16 *8:21 13.05 
6 *8:21 *8:22 56.61 
7 *8:22 *419:io_in[16] 11.7 
*END

*D_NET *9 0.127962
*CONN
*P io_in[17] I
*I *419:io_in[17] I *D tiny_user_project
*CAP
1 io_in[17] 0.00135201
2 *419:io_in[17] 0.000252622
3 *9:14 0.0154567
4 *9:13 0.0152041
5 *9:11 0.047045
6 *9:10 0.048397
7 *419:io_in[17] *419:la_oenb[29] 0
8 *9:11 *278:13 0
9 *7:8 *9:10 0.000254726
*RES
1 io_in[17] *9:10 19.935 
2 *9:10 *9:11 357.21 
3 *9:11 *9:13 4.5 
4 *9:13 *9:14 114.21 
5 *9:14 *419:io_in[17] 10.62 
*END

*D_NET *10 0.135948
*CONN
*P io_in[18] I
*I *419:io_in[18] I *D tiny_user_project
*CAP
1 io_in[18] 0.00231945
2 *419:io_in[18] 0.00498256
3 *10:14 0.0115298
4 *10:13 0.0065472
5 *10:11 0.0399065
6 *10:10 0.0422259
7 *10:14 *48:10 0.0151586
8 *10:14 *82:14 0.0106927
9 *7:8 *10:10 0.00258502
*RES
1 io_in[18] *10:10 32.175 
2 *10:10 *10:11 307.17 
3 *10:11 *10:13 4.5 
4 *10:13 *10:14 95.85 
5 *10:14 *419:io_in[18] 36.675 
*END

*D_NET *11 0.174015
*CONN
*P io_in[19] I
*I *419:io_in[19] I *D tiny_user_project
*CAP
1 io_in[19] 0.00259932
2 *419:io_in[19] 0.00172457
3 *11:11 0.0763027
4 *11:10 0.0771774
5 *419:io_in[19] *79:8 0.00051403
6 *419:io_in[19] *86:8 0.00604033
7 *419:io_in[19] *114:8 0
8 *11:10 *13:8 0.00965717
*RES
1 io_in[19] *11:10 40.815 
2 *11:10 *11:11 598.95 
3 *11:11 *419:io_in[19] 30.015 
*END

*D_NET *12 0.544797
*CONN
*P io_in[1] I
*I *419:io_in[1] I *D tiny_user_project
*CAP
1 io_in[1] 0.000370905
2 *419:io_in[1] 0.00177115
3 *12:19 0.0140312
4 *12:18 0.01226
5 *12:16 0.0716306
6 *12:15 0.0716306
7 *12:13 0.00980679
8 *12:11 0.0101777
9 *12:19 *157:12 0.00231972
10 *12:19 *273:14 0.00724816
11 *12:19 *289:14 0.145779
12 *12:19 *309:14 0.197771
*RES
1 io_in[1] *12:11 3.195 
2 *12:11 *12:13 75.87 
3 *12:13 *12:15 4.5 
4 *12:15 *12:16 548.37 
5 *12:16 *12:18 4.5 
6 *12:18 *12:19 537.93 
7 *12:19 *419:io_in[1] 15.525 
*END

*D_NET *13 0.172852
*CONN
*P io_in[20] I
*I *419:io_in[20] I *D tiny_user_project
*CAP
1 io_in[20] 0.00100592
2 *419:io_in[20] 0.00322266
3 *13:11 0.0452413
4 *13:10 0.0420187
5 *13:8 0.00765645
6 *13:7 0.00866237
7 *419:io_in[20] *219:10 0
8 *419:io_in[20] *227:10 0
9 *13:8 *89:16 0.0553872
10 *13:11 *48:13 0
11 *11:10 *13:8 0.00965717
*RES
1 io_in[20] *13:7 12.285 
2 *13:7 *13:8 138.69 
3 *13:8 *13:10 4.5 
4 *13:10 *13:11 321.75 
5 *13:11 *419:io_in[20] 29.025 
*END

*D_NET *14 0.240405
*CONN
*P io_in[21] I
*I *419:io_in[21] I *D tiny_user_project
*CAP
1 io_in[21] 0.00109084
2 *419:io_in[21] 0.000471944
3 *14:11 0.0744723
4 *14:10 0.0740004
5 *14:8 0.0106738
6 *14:7 0.0117646
7 *419:io_in[21] *62:8 0.00203231
8 *419:io_in[21] *111:14 0.000229883
9 *14:8 *15:8 0.0656688
*RES
1 io_in[21] *14:7 12.825 
2 *14:7 *14:8 164.07 
3 *14:8 *14:10 4.5 
4 *14:10 *14:11 595.53 
5 *14:11 *419:io_in[21] 14.895 
*END

*D_NET *15 0.352271
*CONN
*P io_in[22] I
*I *419:io_in[22] I *D tiny_user_project
*CAP
1 io_in[22] 0.00105188
2 *419:io_in[22] 0.00230688
3 *15:11 0.0448281
4 *15:10 0.0425212
5 *15:8 0.0183324
6 *15:7 0.0193843
7 *419:io_in[22] *419:la_oenb[2] 0
8 *419:io_in[22] *37:61 1.21848e-05
9 *419:io_in[22] *132:41 0.00038657
10 *419:io_in[22] *167:16 0.000501254
11 *419:io_in[22] *273:14 0
12 *15:8 io_oeb[21] 0.00381176
13 *15:8 io_out[21] 0.00391554
14 *15:8 *89:16 0.0944872
15 *7:8 *15:8 0.0550626
16 *14:8 *15:8 0.0656688
*RES
1 io_in[22] *15:7 12.645 
2 *15:7 *15:8 413.55 
3 *15:8 *15:10 4.5 
4 *15:10 *15:11 325.71 
5 *15:11 *419:io_in[22] 24.165 
*END

*D_NET *16 0.276665
*CONN
*P io_in[23] I
*I *419:io_in[23] I *D tiny_user_project
*CAP
1 io_in[23] 0.000345489
2 *419:io_in[23] 0.000815979
3 *16:19 0.00821635
4 *16:18 0.00740037
5 *16:16 0.0608501
6 *16:15 0.0608501
7 *16:13 0.0413883
8 *16:11 0.0417338
9 *419:io_in[23] *419:wbs_dat_i[0] 0
10 *16:16 *45:14 0.045865
11 *16:19 *419:io_in[2] 0.00151774
12 *16:19 *133:19 0.00768181
*RES
1 io_in[23] *16:11 3.195 
2 *16:11 *16:13 318.87 
3 *16:13 *16:15 4.5 
4 *16:15 *16:16 529.29 
5 *16:16 *16:18 4.5 
6 *16:18 *16:19 70.11 
7 *16:19 *419:io_in[23] 19.08 
*END

*D_NET *17 0.389649
*CONN
*P io_in[24] I
*I *419:io_in[24] I *D tiny_user_project
*CAP
1 io_in[24] 0.000201168
2 *419:io_in[24] 0.000528699
3 *17:19 0.0344722
4 *17:18 0.0339435
5 *17:16 0.0771726
6 *17:15 0.0771726
7 *17:13 0.0112867
8 *17:11 0.0114879
9 *17:19 *26:19 0.132528
10 *17:19 *95:8 0.0108552
11 *17:19 *114:8 0
12 *17:19 *135:12 0
13 *17:19 *333:12 0
*RES
1 io_in[24] *17:11 1.935 
2 *17:11 *17:13 71.01 
3 *17:13 *17:15 4.5 
4 *17:15 *17:16 591.57 
5 *17:16 *17:18 4.5 
6 *17:18 *17:19 438.57 
7 *17:19 *419:io_in[24] 7.605 
*END

*D_NET *18 0.239741
*CONN
*P io_in[25] I
*I *419:io_in[25] I *D tiny_user_project
*CAP
1 io_in[25] 0.000125876
2 *419:io_in[25] 0.0019455
3 *18:19 0.00852047
4 *18:18 0.00657497
5 *18:16 0.0637217
6 *18:15 0.0637217
7 *18:13 0.0359681
8 *18:11 0.0360939
9 *419:io_in[25] *406:11 0.000156011
10 *18:16 *285:19 0.0148071
11 *18:16 *361:11 0
12 *18:16 *373:19 0
13 *18:19 *71:14 0
14 *18:19 *302:16 0
15 *18:19 *360:16 0.0081062
*RES
1 io_in[25] *18:11 1.395 
2 *18:11 *18:13 227.61 
3 *18:13 *18:15 4.5 
4 *18:15 *18:16 532.17 
5 *18:16 *18:18 4.5 
6 *18:18 *18:19 69.21 
7 *18:19 *419:io_in[25] 16.875 
*END

*D_NET *19 0.129755
*CONN
*P io_in[26] I
*I *419:io_in[26] I *D tiny_user_project
*CAP
1 io_in[26] 0.00177706
2 *419:io_in[26] 0.000698545
3 *19:12 0.0269803
4 *19:11 0.0262817
5 *19:9 0.0271161
6 *19:7 0.0288931
7 *419:io_in[26] *102:15 0.00300952
8 *419:io_in[26] *102:17 0.00601849
9 *419:io_in[26] *317:12 0.00305173
10 *419:io_in[26] *411:9 0.00592841
11 *19:12 *362:11 0
*RES
1 io_in[26] *19:7 13.185 
2 *19:7 *19:9 212.04 
3 *19:9 *19:11 4.5 
4 *19:11 *19:12 199.35 
5 *19:12 *419:io_in[26] 46.395 
*END

*D_NET *20 0.115128
*CONN
*P io_in[27] I
*I *419:io_in[27] I *D tiny_user_project
*CAP
1 io_in[27] 0.00274339
2 *419:io_in[27] 0.000101891
3 *20:11 0.0316948
4 *20:10 0.0315929
5 *20:8 0.0231256
6 *20:7 0.025869
7 *20:8 *314:13 0
*RES
1 io_in[27] *20:7 21.465 
2 *20:7 *20:8 177.57 
3 *20:8 *20:10 4.5 
4 *20:10 *20:11 239.49 
5 *20:11 *419:io_in[27] 9.81 
*END

*D_NET *21 0.0887975
*CONN
*P io_in[28] I
*I *419:io_in[28] I *D tiny_user_project
*CAP
1 io_in[28] 0.0028607
2 *419:io_in[28] 0.000107311
3 *21:19 0.0312867
4 *21:18 0.0311794
5 *21:16 0.0102513
6 *21:15 0.013112
7 *21:16 *314:13 0
*RES
1 io_in[28] *21:15 26.685 
2 *21:15 *21:16 78.57 
3 *21:16 *21:18 4.5 
4 *21:18 *21:19 236.79 
5 *21:19 *419:io_in[28] 9.81 
*END

*D_NET *22 0.083582
*CONN
*P io_in[29] I
*I *419:io_in[29] I *D tiny_user_project
*CAP
1 io_in[29] 0.00194183
2 *419:io_in[29] 0.000101891
3 *22:11 0.0320697
4 *22:10 0.0319678
5 *22:8 0.0077795
6 *22:7 0.00972133
*RES
1 io_in[29] *22:7 18.765 
2 *22:7 *22:8 59.85 
3 *22:8 *22:10 4.5 
4 *22:10 *22:11 242.19 
5 *22:11 *419:io_in[29] 9.81 
*END

*D_NET *23 0.474785
*CONN
*P io_in[2] I
*I *419:io_in[2] I *D tiny_user_project
*CAP
1 io_in[2] 0.000492522
2 *419:io_in[2] 0.000622427
3 *23:11 0.0319946
4 *23:10 0.0313721
5 *23:8 0.0076153
6 *23:7 0.00810783
7 *419:io_in[2] *73:14 0.000331274
8 *419:io_in[2] *112:26 0.000345965
9 *419:io_in[2] *152:12 0.000881085
10 *23:8 *32:8 0.156883
11 *23:8 *39:13 0.149073
12 *23:8 *40:13 0.000214307
13 *23:8 *99:13 0.00755167
14 *23:11 *32:11 0
15 *23:11 *37:52 0.00318453
16 *23:11 *112:32 0.0745972
17 *23:11 *114:14 0
18 *16:19 *419:io_in[2] 0.00151774
*RES
1 io_in[2] *23:7 8.505 
2 *23:7 *23:8 464.31 
3 *23:8 *23:10 4.5 
4 *23:10 *23:11 337.95 
5 *23:11 *419:io_in[2] 18.315 
*END

*D_NET *24 0.283185
*CONN
*P io_in[30] I
*I *419:io_in[30] I *D tiny_user_project
*CAP
1 io_in[30] 0.00192467
2 *419:io_in[30] 0.000971541
3 *24:11 0.0332336
4 *24:10 0.0322621
5 *24:8 0.024393
6 *24:7 0.0263177
7 *24:11 *419:la_data_in[45] 0.000870585
8 *24:11 *419:la_oenb[16] 0.00170143
9 *24:11 *419:la_oenb[33] 0.00494816
10 *24:11 *419:la_oenb[35] 0.00316411
11 *24:11 *419:wbs_dat_i[16] 0.00150611
12 *24:11 *419:wbs_dat_i[28] 0.00147853
13 *24:11 *58:8 0.149291
14 *24:11 *105:10 0.00112223
15 *24:11 *201:14 0
16 *24:11 *345:22 0
17 *24:11 *392:8 0
*RES
1 io_in[30] *24:7 18.765 
2 *24:7 *24:8 187.29 
3 *24:8 *24:10 4.5 
4 *24:10 *24:11 442.35 
5 *24:11 *419:io_in[30] 10.305 
*END

*D_NET *25 0.0722281
*CONN
*P io_in[31] I
*I *419:io_in[31] I *D tiny_user_project
*CAP
1 io_in[31] 0.00418827
2 *419:io_in[31] 0.000101891
3 *25:11 0.0319258
4 *25:10 0.0360122
5 *25:10 *314:13 0
*RES
1 io_in[31] *25:10 40.455 
2 *25:10 *25:11 239.49 
3 *25:11 *419:io_in[31] 9.81 
*END

*D_NET *26 0.328929
*CONN
*P io_in[32] I
*I *419:io_in[32] I *D tiny_user_project
*CAP
1 io_in[32] 0.000323383
2 *419:io_in[32] 0.000551681
3 *26:19 0.00444502
4 *26:18 0.00389334
5 *26:16 0.00616195
6 *26:15 0.00616195
7 *26:13 0.0199931
8 *26:11 0.0203165
9 *26:13 *56:8 0.0172415
10 *26:16 *321:13 0
11 *26:19 *42:8 0.00156194
12 *26:19 *79:8 0.0244205
13 *26:19 *85:8 0.00535693
14 *26:19 *95:8 0.0834392
15 *26:19 *114:8 0
16 *26:19 *366:22 0.00253372
17 *17:19 *26:19 0.132528
*RES
1 io_in[32] *26:11 3.015 
2 *26:11 *26:13 173.61 
3 *26:13 *26:15 4.5 
4 *26:15 *26:16 46.35 
5 *26:16 *26:18 4.5 
6 *26:18 *26:19 341.37 
7 *26:19 *419:io_in[32] 7.785 
*END

*D_NET *27 0.0829323
*CONN
*P io_in[33] I
*I *419:io_in[33] I *D tiny_user_project
*CAP
1 io_in[33] 0.00117627
2 *419:io_in[33] 0.000101891
3 *27:11 0.0333251
4 *27:10 0.0332233
5 *27:8 0.00696473
6 *27:7 0.008141
*RES
1 io_in[33] *27:7 13.365 
2 *27:7 *27:8 53.37 
3 *27:8 *27:10 4.5 
4 *27:10 *27:11 247.59 
5 *27:11 *419:io_in[33] 9.81 
*END

*D_NET *28 0.231682
*CONN
*P io_in[34] I
*I *419:io_in[34] I *D tiny_user_project
*CAP
1 io_in[34] 0.00312523
2 *419:io_in[34] 0.000144126
3 *28:19 0.0138707
4 *28:18 0.0137266
5 *28:16 0.0454146
6 *28:15 0.0485399
7 *28:16 wbs_ack_o 0
8 *28:19 *314:16 0.0993295
9 *28:19 *317:12 0
10 *28:19 *384:38 0.00753086
*RES
1 io_in[34] *28:15 28.845 
2 *28:15 *28:16 348.57 
3 *28:16 *28:18 4.5 
4 *28:18 *28:19 249.93 
5 *28:19 *419:io_in[34] 5.535 
*END

*D_NET *29 0.3301
*CONN
*P io_in[35] I
*I *419:io_in[35] I *D tiny_user_project
*CAP
1 io_in[35] 0.000113196
2 *419:io_in[35] 0.000344373
3 *29:19 0.0421759
4 *29:18 0.0418315
5 *29:16 0.0544551
6 *29:15 0.0544551
7 *29:13 0.00646089
8 *29:11 0.00657409
9 *29:16 *92:11 0
10 *29:16 *360:13 0
11 *29:19 *419:la_oenb[34] 0.000295838
12 *29:19 *37:89 0.0165503
13 *29:19 *68:8 0.00244875
14 *29:19 *134:14 0.00932037
15 *29:19 *198:8 0
16 *29:19 *224:13 8.57847e-05
17 *29:19 *270:16 0.0842387
18 *29:19 *307:14 0.000392271
19 *29:19 *316:16 0.000516415
20 *29:19 *335:14 0.000124259
21 *29:19 *387:8 0
22 *29:19 *400:10 0.000218907
23 *29:19 *402:10 0.000250152
24 *29:19 *413:18 0.0092479
25 *29:19 *414:22 0
*RES
1 io_in[35] *29:11 1.395 
2 *29:11 *29:13 49.41 
3 *29:13 *29:15 4.5 
4 *29:15 *29:16 417.51 
5 *29:16 *29:18 4.5 
6 *29:18 *29:19 529.29 
7 *29:19 *419:io_in[35] 6.165 
*END

*D_NET *30 0.31074
*CONN
*P io_in[36] I
*I *419:io_in[36] I *D tiny_user_project
*CAP
1 io_in[36] 0.00177706
2 *419:io_in[36] 0.000958081
3 *30:12 0.0416854
4 *30:11 0.0407273
5 *30:9 0.0801954
6 *30:7 0.0819724
7 *30:12 *133:19 0.0097554
8 *30:12 *184:11 0.0172791
9 *30:12 *331:22 0
10 *30:12 *370:19 0.0168393
11 *30:12 *372:19 0.0195504
*RES
1 io_in[36] *30:7 13.185 
2 *30:7 *30:9 603.18 
3 *30:9 *30:11 4.5 
4 *30:11 *30:12 448.11 
5 *30:12 *419:io_in[36] 19.98 
*END

*D_NET *31 0.47293
*CONN
*P io_in[37] I
*I *419:io_in[37] I *D tiny_user_project
*CAP
1 io_in[37] 0.000323383
2 *419:io_in[37] 0.00258376
3 *31:16 0.0212313
4 *31:15 0.0186475
5 *31:13 0.083242
6 *31:11 0.0835654
7 *31:13 *257:10 0
8 *31:13 *368:14 0
9 *31:16 *130:11 0.185653
10 *31:16 *242:13 0.00656743
11 *31:16 *261:19 0.0711161
*RES
1 io_in[37] *31:11 3.015 
2 *31:11 *31:13 626.13 
3 *31:13 *31:15 4.5 
4 *31:15 *31:16 477.99 
5 *31:16 *419:io_in[37] 31.59 
*END

*D_NET *32 0.38402
*CONN
*P io_in[3] I
*I *419:io_in[3] I *D tiny_user_project
*CAP
1 io_in[3] 0.000505308
2 *419:io_in[3] 0.000446
3 *32:11 0.0454038
4 *32:10 0.0449578
5 *32:8 0.00464084
6 *32:7 0.00514615
7 *32:8 *33:8 0.0022191
8 *32:8 *40:13 0.0403358
9 *32:8 *61:13 0.00188597
10 *32:8 *99:13 0.0815961
11 *32:11 *112:32 0
12 *23:8 *32:8 0.156883
13 *23:11 *32:11 0
*RES
1 io_in[3] *32:7 8.325 
2 *32:7 *32:8 399.33 
3 *32:8 *32:10 4.5 
4 *32:10 *32:11 342.81 
5 *32:11 *419:io_in[3] 11.7 
*END

*D_NET *33 0.199596
*CONN
*P io_in[4] I
*I *419:io_in[4] I *D tiny_user_project
*CAP
1 io_in[4] 0.000510991
2 *419:io_in[4] 0.000522251
3 *33:11 0.0560441
4 *33:10 0.0555218
5 *33:8 0.011744
6 *33:7 0.0122549